/*--------------------------------*- C++ -*----------------------------------*\
| =========                 |                                                 |
| \\      /  F ield         | OpenFOAM: The Open Source CFD Toolbox           |
|  \\    /   O peration     | Version:  5                                     |
|   \\  /    A nd           | Web:      www.OpenFOAM.org                      |
|    \\/     M anipulation  |                                                 |
\*---------------------------------------------------------------------------*/
FoamFile
{
    version     2.0;
    format      ascii;
    class       dictionary;
    location    "constant";
    object      optProperties;
}
// * * * * * * * * * * * * * * * * * * * * * * * * * * * * * * * * * * * * * //

// ========================= Optimization / MMA ========================= //
raa0                1e-5;      // MMA regularization parameter
voluse              0.4;       // Target initial/constraint volume fraction
mma_init            0.3;       // MMA asymptote initialization factor
mma_dec             0.7;       // MMA asymptote decrease factor
mma_inc             1.2;       // MMA asymptote increase factor
movlim              0.3;       // MMA move limit per optimization step
filterR             2.5;       // Helmholtz/PDE filter radius (in cell-length units)

// ========================= Objective / Constraint ===================== //
PowerDiss0          1e-12;     // Reference dissipation for normalization
PowerDissMax        10;        // Max allowed power dissipation constraint
PowerDissRelax      25;        // Dissipation constraint relaxation window
GeoDim              2;         // Geometric dimension flag
Pnorm               300;       // p-norm exponent for max-temperature approximation
objFunction         1;         // 1: mean temperature, 2: p-norm max temperature

// ========================= Design Region Controls ===================== //
fluid_area          yes;       // Keep fluid-designated zone fixed as fluid
solid_area          no;        // Keep solid-designated zone fixed as solid
test_area           yes;       // Enable test-zone initialization override

// ========================= Adjoint Coupling =========================== //
nAdjTurbPasses      2;         // Number of adjoint turbulence coupling passes per opt step
turbSensDamp        0;         // Sensitivity damping for turbulence source contribution

// ========================= Robust Adjoint Framework =================== //
adjPseudoInvDtUa    50;        // Pseudo-transient inverse dt for Ua equation
adjPseudoInvDtUb    40;        // Pseudo-transient inverse dt for Ub equation
adjPseudoInvDtTb    5000;      // Pseudo-transient inverse dt for Tb equation (very strong diagonal dominance to avoid FPE)
tbPreSolveReset     1e4;       // Reset Tb to zero before solve if max|Tb| exceeds this (avoids ill-conditioned matrix)
tbHardCapMax        1e6;       // Upper bound on Tb hard cap (keeps Tb from reaching O(1e10))
tbRhsCapMax         1e10;      // Max |RHS source| per cell; scale down if exceeded (avoids FPE in iterative solvers)
adjPseudoInvDtTurb  100;       // Pseudo-transient inverse dt for ka/omegaa equations

adjTurbBetaMin      0.2;       // Initial turbulence-adjoint continuation factor
adjTurbRampStart    1;         // Iteration to start turbulence-adjoint beta ramp
adjTurbRampEnd      80;        // Iteration to finish turbulence-adjoint beta ramp
adjTurbLagEvery     2;         // Solve turbulence adjoint every N opt iterations

adjHeatBetaMin      0.1;       // Initial heat-adjoint continuation factor for Ub source
adjHeatRampStart    1;         // Iteration to start heat-adjoint beta ramp
adjHeatRampEnd      220;       // Iteration to finish heat-adjoint beta ramp
adjUaPassDecay      0.35;      // Extra Ua-source damping factor applied per adjoint pass (>0)
adjUaPassMinGain    0.10;      // Minimum Ua-source gain floor for later adjoint passes
adjUaLocalCapCoeff  200;       // Local Ua-source cap coefficient on U^2/L convective scale
adjUaRhsCapCoeff    200;       // Global Ua RHS cap coefficient on U^2/L convective scale
adjUaAllPassTbMax   1e6;       // Skip Ua update (any pass) if |Tb| exceeds this hard trust limit (decouple when Tb bad)
adjUaHigherPassTbMax 1e5;      // Skip higher-pass Ua update if |Tb| exceeds this trust threshold

// ========================= Runtime Diagnostics ======================== //
diagLevel           2;         // 0: off, 1: metrics, 2: full field-health logs
diagEvery           1;         // Log diagnostics every N optimization iterations
diagRank            -1;        // -1: all ranks, otherwise selected MPI rank only
diagOptStart        1;         // First optimization iteration to begin diagnostics

// * * * * * * * * * * * * * * * * * * * * * * * * * * * * * * * * * * * * * //  
