/*--------------------------------*- C++ -*----------------------------------*\
|  Adjoint specific dissipation (created when adjoint turbulence active)
\*---------------------------------------------------------------------------*/
FoamFile
{
    version     2.0;
    format      ascii;
    class       volScalarField;
    object      omegaa;
}
// * * * * * * * * * * * * * * * * * * * * * * * * * * * * * * * * * * * * * //

dimensions      [0 0 -1 0 0 0 0];

internalField   uniform 0;

boundaryField
{
    inlet
    {
        type            zeroGradient;
    }
    outlet
    {
        type            zeroGradient;
    }
    Wall
    {
        type            fixedValue;
        value           uniform 0;
    }
    right
    {
        type            symmetry;
    }
    frontAndBack
    {
        type            empty;
    }
}

// ************************************************************************* //
