/*--------------------------------*- C++ -*----------------------------------*\
| =========                 |                                                 |
| \\      /  F ield         | OpenFOAM: The Open Source CFD Toolbox           |
|  \\    /   O peration     | Version:  5                                     |
|   \\  /    A nd           | Web:      www.OpenFOAM.org                      |
|    \\/     M anipulation  |                                                 |
\*---------------------------------------------------------------------------*/
FoamFile
{
    version     2.0;
    format      ascii;
    class       dictionary;
    location    "system";
    object      fvSolution;
}
// * * * * * * * * * * * * * * * * * * * * * * * * * * * * * * * * * * * * * //

solvers
{
    "(p|pa|pb|pc)"
    {
        solver          GAMG;
        smoother        GaussSeidel;
        cacheAgglomeration true;
        nCellsInCoarsestLevel 10;
        mergeLevels     1;
        tolerance       1e-7;
        relTol          0.1;
    }

    "(U|Ua|Ub|Uc|k|omega|ka|omegaa|epsilon)"
    {
        solver          smoothSolver;
        smoother        GaussSeidel;
        nSweeps         2;
        tolerance       1e-8;
        relTol          0.1;
    }
    T
    {
        solver          GAMG;
        smoother        GaussSeidel;
        cacheAgglomeration true;
        nCellsInCoarsestLevel 10;
        mergeLevels     1;
        tolerance       1e-6;
        relTol          0.01;
    }
    "(Ta|Tb)"
    {
        solver          GAMG;
        smoother        GaussSeidel;
        cacheAgglomeration true;
        nCellsInCoarsestLevel 10;
        mergeLevels     1;
        tolerance       1e-7;
        relTol          0.01;
    }
     "(xp|fsensMeanT|gsensVol|gsensPowerDiss)"
    {
        solver          PCG;
        preconditioner  DIC;
        tolerance       1e-6;
        relTol          0;
    }
}

SIMPLE
{
    nNonOrthogonalCorrectors 0;
 //   nCorrectors 2;
// nOuterCorrectors 10;
    pRefCell 0;
    pRefValue 0;

}

relaxationFactors
{
    fields
    {
        "(p|pa|pb|pc)"     0.3;
        alpha           0.1;
    }
    equations
    {
        "(U|Ua|Ub|Uc)"     0.7;
        "(k|omega|ka|omegaa|epsilon)"   0.7;
        T                 0.9;
        "(Ta|Tb)"         0.9;
    }
}
constraintFunctionDict_flow
{
    numberConstraintPatches      2;
    constraintPatchesNames       (inlet outlet);
}
// ************************************************************************* //
